153

Mo     -0.184343210000000      0.779032560000000     12.707561975000001
S       1.345448010000000     -0.160155190000000     11.121263985000001
S       1.442974520000000     -0.102437360000000     14.227108395000000
Mo      2.967553980000000      0.789085490000000     12.607315675000001
S       4.498319010000000     -0.150539690000000     11.021351395000000
S       4.592977960000000     -0.094135090000000     14.127407455000000
Mo      6.121096710000000      0.793613730000000     12.510602335000002
S       7.657020450000000     -0.144255570000000     10.927532075000000
S       7.741513120000000     -0.093366050000000     14.034053055000001
Mo      9.277801269999999      0.792042880000000     12.424525915000000
S      10.821178630000000     -0.142944570000000     10.845737325000002
S      10.891916450000000     -0.099700540000000     13.952757775000000
Mo     12.438937790000001      0.783793850000000     12.352426775000001
S      13.990423500000000     -0.148038610000000     10.778288164999999
S      14.046892540000000     -0.112914820000000     13.885697215000000
Mo     15.605303680000000      0.768580140000000     12.294654295000001
S      17.164482000000000     -0.160267670000000     10.724890715000001
S      17.208024259999998     -0.132802460000000     13.832526435000000
Mo     18.777015290000001      0.746807520000000     12.249900395000001
S      20.342964580000000     -0.179293410000000     10.684001365000000
S      20.375510899999998     -0.158775310000000     13.791729665000000
Mo     21.953311700000000      0.719810400000000     12.216471195000000
S      23.525015379999999     -0.203595120000000     10.654004015000002
S      23.548098870000000     -0.189509760000000     13.761768035000001
Mo     25.132430020000001      0.689924880000000     12.193165755000001
S      26.709073539999999     -0.230556020000000     10.633939535000000
S      26.723276439999999     -0.222754080000000     13.741751975000000
Mo     28.311871660000001      0.660193080000000     12.179648215000000
S      29.893090539999999     -0.256887090000000     10.623778065000000
S      29.897807550000000     -0.255636320000000     13.731681265000001
Mo     31.489037410000002      0.633621920000000     12.176563435000000
S      33.075151280000000     -0.279374130000000     10.624528935000001
S      33.068549590000003     -0.285417290000000     13.732529825000000
Mo     34.661935640000003      0.612462670000000     12.185616795000001
S      36.253974110000001     -0.295614620000000     10.638257585000002
S      36.233256480000001     -0.310158710000000     13.746279665000001
Mo     37.829537930000001      0.597896990000000     12.209422585000000
S      39.428949600000003     -0.304411560000000     10.667798315000001
S      39.390999420000000     -0.328904390000000     13.775675635000001
Mo     40.991715010000000      0.590123170000000     12.250940495000000
S      42.599808379999999     -0.305799120000000     10.716012915000000
S      42.542201009999999     -0.341410670000000     13.823517585000001
Mo     44.148980530000003      0.588648930000000     12.312444325000001
S      45.766258800000003     -0.300806710000000     10.784639885000001
S      45.688460929999998     -0.347737620000000     13.891549115000000
Mo     47.302240980000001      0.592663640000000     12.394268435000001
S      48.927788540000002     -0.291075630000000     10.872995595000001
S      48.832307010000001     -0.347852330000000     13.979204595000001
Mo     50.452657119999998      0.601386700000000     12.493581585000001
S      52.083764649999999     -0.278415100000000     10.976865165000000
S      51.976878120000002     -0.341425520000000     14.082510835000001
Mo     53.601615649999999      0.614205610000000     12.603644985000001
S      55.233797729999999     -0.264434430000000     11.088075594999999
S      55.125465220000002     -0.327948110000000     14.193565675000000
Mo     56.750590410000001      0.630752040000000     12.713979375000001
S      58.378101950000001     -0.250218140000000     11.195131905000000
S      58.280793140000000     -0.307049330000000     14.300983505000001
Mo     59.900921420000003      0.650661210000000     12.811705975000001
S      61.517660090000000     -0.236308020000000     11.284992655000000
S      61.444165939999998     -0.279079160000000     14.391559235000001
Mo     63.053269049999997      0.673363330000000     12.883932865000000
S      64.653995069999993     -0.222783920000000     11.345657385000001
S      64.614660760000007     -0.245527730000000     14.452896255000001
Mo     66.207387879999999      0.697714470000000     12.920571905000001
S      67.788928010000006     -0.209592550000000     11.368827345000000
S      67.789071469999996     -0.209248490000000     14.476325545000000
Mo     69.362167080000006      0.722086910000000     12.916810765000001
S      70.924313130000002     -0.196656230000000     11.351887245000000
S      70.962829940000006     -0.173874420000000     14.459111255000000
Mo     72.516305369999998      0.744690610000000     12.874307985000002
S      74.062001480000006     -0.183953730000000     11.298506145000001
S      74.131728839999994     -0.142877010000000     14.405117795000001
Mo     75.669117180000001      0.764017170000000     12.800710665000000
S      77.203706100000005     -0.171622550000000     11.217651995000001
S      77.293462939999998     -0.118699820000000     14.323700875000000
Mo      0.180823340000000     -0.758793490000000     18.838609195000000
S       1.652484690000000     -1.728655930000000     17.242141515000000
S       1.764469960000000     -1.662438670000000     20.363294294999999
Mo      3.225537280000000     -0.774067300000000     18.729055025000001
S       4.702748790000000     -1.740168840000000     17.134934805000000
S       4.805943170000000     -1.678697740000000     20.256047385000002
Mo      6.269800450000000     -0.782861470000000     18.628753965000001
S       7.756138410000000     -1.742943120000000     17.039440145000000
S       7.842668930000000     -1.690738790000000     20.160973105000000
Mo      9.312392420000000     -0.784163200000000     18.544997515000002
S      10.809082840000000     -1.737302830000000     16.961650625000001
S      10.875577200000000     -1.696341470000000     20.083797584999999
Mo     12.351960050000001     -0.777220270000000     18.480803175000002
S      13.858285320000000     -1.723586450000000     16.903430005000001
S      13.905261630000000     -1.693689080000000     20.026196685000002
Mo     15.387294310000000     -0.761583120000000     18.435487524999999
S      16.901115440000002     -1.702185010000000     16.863139244999999
S      16.932176399999999     -1.681506400000000     19.986427554999999
Mo     18.417771880000000     -0.737422250000000     18.405428685000000
S      19.936128080000000     -1.673828590000000     16.836479275000002
S      19.956849720000001     -1.659494040000000     19.960161275000001
Mo     21.443637769999999     -0.705881710000000     18.385136865000000
S      22.963616030000001     -1.639798770000000     16.817777965000001
S      22.979868410000002     -1.628820320000000     19.941710565000001
Mo     24.466140050000000     -0.669264250000000     18.368943005000002
S      25.985871990000000     -1.602031280000000     16.801834705000001
S      26.001783090000000     -1.592376640000000     19.925860815000000
Mo     27.487368790000001     -0.630897530000000     18.353037615000002
S      29.006799120000000     -1.563040350000000     16.785868695000001
S      29.023111310000001     -1.554449500000000     19.909832434999998
Mo     30.509772000000002     -0.594450520000000     18.337045205000003
S      32.030778820000002     -1.525542450000000     16.770713165000000
S      32.044417930000002     -1.519693560000000     19.894498384999999
Mo     33.535543680000004     -0.563158370000000     18.324304874999999
S      35.061354799999997     -1.492000560000000     16.760658265000000
S      35.066399560000001     -1.491978340000000     19.884190204999999
Mo     36.566087639999999     -0.539156680000000     18.320790425000002
S      38.100267690000003     -1.464224640000000     16.762054595000002
S      38.089844980000002     -1.473553630000000     19.885247114999999
Mo     39.601849000000001     -0.523392730000000     18.333167934999999
S      41.147328260000002     -1.443322360000000     16.781347265000001
S      41.115487369999997     -1.465014510000000     19.904056705000002
Mo     42.642389369999997     -0.515863580000000     18.366992815000000
S      44.200803839999999     -1.429814140000000     16.823420615000000
S      44.143842309999997     -1.465707240000000     19.945464415000000
Mo     45.686640670000003     -0.516000160000000     18.425523054999999
S      47.258010630000001     -1.423899590000000     16.890574015000002
S      47.175221260000001     -1.474244940000000     20.011813045000000
Mo     48.733253849999997     -0.523041050000000     18.509072015000001
S      50.315805040000001     -1.425745680000000     16.981970145000002
S      50.209939980000001     -1.488907390000000     20.102437585000001
Mo     51.780837869999999     -0.536140650000000     18.614624155000001
S      53.370792360000003     -1.435626720000000     17.093213925000001
S      53.248636910000002     -1.507698150000000     20.213241785000001
Mo     54.828230320000003     -0.554415380000000     18.735270655000001
S      56.419630609999999     -1.453930330000000     17.215809825000001
S      56.292531029999999     -1.528388380000000     20.336077145000001
Mo     57.874751449999998     -0.576922210000000     18.859672355000001
S      59.459719819999997     -1.480841230000000     17.336955724999999
S      59.343209399999999     -1.548744840000000     20.458332214999999
Mo     60.920268999999998     -0.602565190000000     18.972445154999999
S      62.490221120000001     -1.515691860000000     17.440655975000002
S      62.401690700000003     -1.567029460000000     20.563752725000001
Mo     63.965069010000001     -0.630177350000000     19.056545225000001
S      65.512847129999997     -1.556488440000000     17.510814375000002
S      65.467176510000002     -1.582706500000000     20.635477925000000
Mo     67.009450700000002     -0.658604350000000     19.097689275000000
S      68.531705220000006     -1.599878740000000     17.535723515000001
S      68.536380489999999     -1.596700960000000     20.660957775000000
Mo     70.053552389999993     -0.686807100000000     19.089186945000002
S      71.552087779999994     -1.641855710000000     17.512018955000002
S      71.604448520000005     -1.610863690000000     20.636573985000002
Mo     73.097523620000004     -0.713774670000000     19.034470265000000
S      74.578653029999998     -1.678792130000000     17.445867815000000
S      74.667074510000006     -1.626725440000000     20.569027595000001
Mo     76.141610380000003     -0.738238850000000     18.945574925000003
S      77.613894290000005     -1.708130550000000     17.350590145000002
S      77.722121729999998     -1.644371010000000     20.472444545000002
